tests/data/state_estimation/distribution-case/sym_output_batch.json
{
  "version": "1.0",
  "type": "sym_output",
  "is_batch": true,
  "attributes": {},
  "data": [
    {
      "node": [
        {"id": 1, "energized": 1, "u_pu": 0.8560431728248089, "u": 17120.86345649618, "u_angle": -0.235669426481254, "p": 208796.5974370964, "q": 79187.68503019326},
        {"id": 2, "energized": 1, "u_pu": 0.8528526001314131, "u": 341.1410400525652, "u_angle": -2.862596343594322, "p": 0, "q": 0},
        {"id": 3, "energized": 1, "u_pu": 0.8524340340819745, "u": 340.9736136327898, "u_angle": -2.862612005735382, "p": -59500, "q": -15000},
        {"id": 4, "energized": 1, "u_pu": 0.85250335421984, "u": 341.001341687936, "u_angle": -2.86274812851491, "p": 44500, "q": 9000},
        {"id": 5, "energized": 1, "u_pu": 0.8495450062127854, "u": 339.8180024851142, "u_angle": -2.862590489406438, "p": -65550, "q": -21540},
        {"id": 6, "energized": 1, "u_pu": 0.8435284908262257, "u": 337.4113963304903, "u_angle": -2.862339370471785, "p": -70000, "q": -30000},
        {"id": 7, "energized": 1, "u_pu": 0.7992792459031395, "u": 319.7116983612558, "u_angle": -2.858988906779594, "p": 0, "q": 0},
        {"id": 8, "energized": 1, "u_pu": 0.7508434380440624, "u": 300.337375217625, "u_angle": -2.868715195841156, "p": -50250, "q": -15800}
      ],
      "line": [
        {"id": 9, "energized": 1, "loading": 0.02209738886894574, "p_from": 125334.3178071244, "q_from": 36595.2834364627, "i_from": 220.9738713516455, "s_from": 130567.629946983, "p_to": -125273.3786464605, "q_to": -36575.39756158792, "i_to": 220.9738886894574, "s_to": 130503.5597379921},
        {"id": 10, "energized": 1, "loading": 0.01559403854311498, "p_from": 83230.71407053778, "q_from": 39530.02664483299, "i_from": 155.9403854311498, "s_from": 92141.05909545875, "p_to": -83202.62746913906, "q_to": -39501.21052132003, "i_to": 155.9403854311498, "s_to": 92103.32703229551},
        {"id": 11, "energized": 1, "loading": 0.01172088868262802, "p_from": 65773.37864652778, "q_from": 21575.39756159854, "i_from": 117.2088675818544, "s_from": 69221.63764691319, "p_to": -65550.00005270701, "q_to": -21503.72201602719, "i_to": 117.2088868262802, "s_to": 68987.04637431914},
        {"id": 12, "energized": 1, "loading": 0.02312825820373069, "p_from": 127702.6274692225, "q_from": 48501.21052127669, "i_from": 231.2825820373069, "s_from": 136602.8128721082, "p_to": -126338.5908339994, "q_to": -48042.25231224872, "i_to": 231.2825820373069, "s_to": 135164.7052345933},
        {"id": 13, "energized": 1, "loading": 6.163623957352205e-06, "p_from": 5.271160910508927e-05, "q_from": -36.27798397313444, "i_from": 0.06163623957352205, "s_from": 36.27798397317274, "p_to": 0, "q_to": 0, "i_to": 0, "s_to": 0},
        {"id": 14, "energized": 1, "loading": 0.01012429443022176, "p_from": 56338.59083399748, "q_from": 18042.25231224654, "i_from": 101.2246602903177, "s_from": 59157.0763785648, "p_to": -53325.58411675716, "q_to": -17307.56709249234, "i_to": 101.2429443022176, "s_to": 56063.97952388385},
        {"id": 15, "energized": 1, "loading": 0.01012600656038891, "p_from": 53325.58411675751, "q_from": 17307.56709249309, "i_from": 101.2429443022186, "s_from": 56063.97952388441, "p_to": -50249.99999999988, "q_to": -15800.00000000021, "i_to": 101.2600656038891, "s_to": 52675.44494354077}
      ],
      "transformer": [
        {"id": 17, "energized": 1, "loading": 0.1772290080407286, "p_from": 104398.2987185491, "q_from": 39593.84251509853, "i_from": 3.76520880089557, "s_from": 111654.275065659, "p_to": -104282.5159388853, "q_to": -38062.65504066495, "i_to": 187.8773197710369, "s_to": 111011.7509063276},
        {"id": 18, "energized": 1, "loading": 0.1772290080407286, "p_from": 104398.2987185491, "q_from": 39593.84251509853, "i_from": 3.76520880089557, "s_from": 111654.275065659, "p_to": -104282.5159388853, "q_to": -38062.65504066495, "i_to": 187.8773197710369, "s_to": 111011.7509063276}
      ],
      "source": [
        {"id": 16, "energized": 1, "p": 208796.5974370964, "q": 79187.68503019326, "i": 7.530417601791036, "s": 223308.5501313149, "pf": 0.9350138958598546}
      ],
      "asym_gen": [
        {"id": 23, "energized": 1, "p": 44500, "q": 9000, "i": 76.86853766819721, "s": 45400.99117860755, "pf": 0.9801548125884952}
      ],
      "sym_load": [
        {"id": 19, "energized": 1, "p": 65550, "q": 21540, "i": 117.228113796972, "s": 68998.36302406021, "pf": 0.9500225386092459},
        {"id": 20, "energized": 1, "p": 70000, "q": 30000, "i": 130.314764129984, "s": 76157.73105863907, "pf": 0.9191450300180581},
        {"id": 21, "energized": 1, "p": 50250, "q": 15800, "i": 101.2600656038892, "s": 52675.44494354081, "pf": 0.9539549225233791}
      ],
      "asym_load": [
        {"id": 22, "energized": 1, "p": 59500, "q": 15000, "i": 103.8999907711124, "s": 61361.6329639295, "pf": 0.9696612871266996}
      ]
    },
    {
      "node": [
        {"id": 1, "energized": 1, "u_pu": 0.85889911850856, "u": 17177.9823701712, "u_angle": -0.2310256470571513, "p": 205479.7015637694, "q": 78314.90865825058},
        {"id": 2, "energized": 1, "u_pu": 0.8557550719997815, "u": 342.3020287999126, "u_angle": -2.857750987392809, "p": 0, "q": 0},
        {"id": 3, "energized": 1, "u_pu": 0.8551878706006839, "u": 342.0751482402736, "u_angle": -2.857753180680732, "p": -59500, "q": -15000},
        {"id": 4, "energized": 1, "u_pu": 0.8555928560276003, "u": 342.2371424110401, "u_angle": -2.857805570616444, "p": 44500, "q": 9000},
        {"id": 5, "energized": 1, "u_pu": 0.8503582471485877, "u": 340.143298859435, "u_angle": -2.857544589280911, "p": -65550, "q": -21540},
        {"id": 6, "energized": 1, "u_pu": 0.8499482723700497, "u": 339.9793089480199, "u_angle": -2.857621661550209, "p": -70000, "q": -30000},
        {"id": 7, "energized": 1, "u_pu": 0.842561694093326, "u": 337.0246776373304, "u_angle": -2.860245900881301, "p": 0, "q": 0},
        {"id": 8, "energized": 1, "u_pu": 0.7969314955680196, "u": 318.7725982272078, "u_angle": -2.868940596515285, "p": -50250, "q": -15800}
      ],
      "line": [
        {"id": 9, "energized": 1, "loading": 0.0299292409082664, "p_from": 168842.8448571942, "q_from": 54581.25130631004, "i_from": 299.2923899915594, "s_from": 177445.8206147249, "p_to": -168731.0540835474, "q_to": -54544.74110847269, "i_to": 299.2924090826639, "s_to": 177328.2193976337},
        {"id": 10, "energized": 1, "loading": 0.007067594142570252, "p_from": 36407.45366697838, "q_from": 20744.42380415893, "i_from": 70.67594142570252, "s_from": 41902.67057694215, "p_to": -36401.68433953403, "q_to": -20738.50462405369, "i_to": 70.67594142570252, "s_to": 41894.72755367879},
        {"id": 11, "energized": 1, "loading": 0.01960684495438662, "p_from": 109231.0540834283, "q_from": 39544.74110852521, "i_from": 196.0684284766788, "s_from": 116168.8844980321, "p_to": -108605.973622321, "q_to": -39344.10607583347, "i_to": 196.0684495438662, "s_to": 115512.8399328782},
        {"id": 12, "energized": 1, "loading": 0.01454088670701457, "p_from": 80901.68433951557, "q_from": 29738.5046240185, "i_from": 145.4088670701457, "s_from": 86194.32223901636, "p_to": -80362.51900463869, "q_to": -29557.09134663639, "i_to": 145.4088670701457, "s_to": 85625.67436023102},
        {"id": 13, "energized": 1, "loading": 0.007910723632285711, "p_from": 43055.9736223224, "q_from": 17804.10607583407, "i_from": 79.08382484997621, "s_from": 46591.87759390765, "p_to": -42708.75914291397, "q_to": -17561.41177946627, "i_to": 79.10723632285712, "s_to": 46178.36388629868},
        {"id": 14, "energized": 1, "loading": 0.001761361724585608, "p_from": 10362.51900463823, "q_from": -442.9086533600936, "i_from": 17.61361724585608, "s_from": 10371.97995547185, "p_to": -10271.32194457317, "q_to": 430.175024429125, "i_to": 17.61102211191522, "s_to": 10280.32611548451},
        {"id": 15, "energized": 1, "loading": 0.009540400425559797, "p_from": 52980.08108748874, "q_from": 17131.2367550377, "i_from": 95.3859286189891, "s_from": 55680.95064556672, "p_to": -50249.99999999984, "q_to": -15800.00000000024, "i_to": 95.40400425559797, "s_to": 52675.44494354074}
      ],
      "transformer": [
        {"id": 17, "energized": 1, "loading": 0.1745222263166267, "p_from": 102739.850781885, "q_from": 39157.45432912306, "i_from": 3.695374978764634, "s_from": 109949.0025794748, "p_to": -102625.1492619885, "q_to": -37662.83755524398, "i_to": 184.3831851614982, "s_to": 109317.9335413825},
        {"id": 18, "energized": 1, "loading": 0.1745222263166267, "p_from": 102739.850781885, "q_from": 39157.45432912306, "i_from": 3.695374978764634, "s_from": 109949.0025794748, "p_to": -102625.1492619885, "q_to": -37662.83755524398, "i_to": 184.3831851614982, "s_to": 109317.9335413825}
      ],
      "source": [
        {"id": 16, "energized": 1, "p": 205479.7015637694, "q": 78314.90865825058, "i": 7.3907499575293, "s": 219898.0051589506, "pf": 0.9344318581482396}
      ],
      "asym_gen": [
        {"id": 23, "energized": 1, "p": 44500, "q": 9000, "i": 76.5909693313268, "s": 45400.99117860755, "pf": 0.9801548125884952}
      ],
      "sym_load": [
        {"id": 19, "energized": 1, "p": 65550, "q": 21540, "i": 117.1160025764526, "s": 68998.36302406021, "pf": 0.9500225386092459},
        {"id": 20, "energized": 1, "p": 70000, "q": 30000, "i": 129.3304779741728, "s": 76157.73105863907, "pf": 0.9191450300180581},
        {"id": 21, "energized": 1, "p": 50250, "q": 15800, "i": 95.40400425559811, "s": 52675.44494354081, "pf": 0.9539549225233791}
      ],
      "asym_load": [
        {"id": 22, "energized": 1, "p": 59500, "q": 15000, "i": 103.5654168152423, "s": 61361.6329639295, "pf": 0.9696612871266996}
      ]
    }
  ]
}